data/irish_network/psse/WinterPeak2019.raw
0,   100.00          / PSS/E-30.3    MON, NOV 18 2013  18:12
AITYTFS Winter Peak 2019/20

    10,'F_M         ',  38.0000,1,     0.000,     0.000,   2,   1,1.06215, -12.9187,   2
    11,'FMN LOOP    ',  38.0000,1,     0.000,     0.000,   2,   1,1.07092, -10.8421,   2
    12,'BEDFORD     ',  38.0000,1,     0.000,     0.000,   1,   1,1.06917, -12.7523,   2
    13,'M_R         ',  38.0000,1,     0.000,     0.000,   1,   1,1.06022, -12.1882,   2
    14,'F_I         ',  38.0000,1,     0.000,     0.000,   2,   1,1.05440, -12.3975,   2
    15,'I_M         ',  38.0000,1,     0.000,     0.000,   2,   1,1.06315, -12.8026,   2
  1021,'ARDNACRU    ', 110.0000,1,     0.000,     0.000,   4,   1,1.05000,  -3.7156,   1
  1041,'AGHADA      ', 110.0000,1,     0.000,     0.000,   3,   1,1.04022,   0.9563,   1
  1042,'AGHADA      ', 220.0000,1,     0.000,     0.000,   3,   1,1.04000,   4.1650,   1
  1052,'AGHADA_B    ', 220.0000,1,     0.000,     0.000,   3,   1,1.04081,   4.0007,   1
  1061,'ARIGNA      ', 110.0000,1,     0.000,     0.000,   9,   1,1.05331,  -8.7136,   2
  1062,'AGH_AT14    ', 220.0000,1,     0.000,     0.000,   3,   1,1.04000,   4.1650,   1
  1071,'AGANNYGA    ', 110.0000,1,     0.000,     0.000,   4,   1,1.06112,  -2.9203,   1
  1072,'AGHT2102    ', 220.0000,1,     0.000,     0.000,   3,   1,1.03996,   4.1495,   1
  1081,'AHANE       ', 110.0000,1,     0.000,     0.000,   7,   1,1.04628,  -3.4578,   2
  1091,'ADAMSTOW    ', 110.0000,1,     0.000,     0.000,   1,   1,1.03133, -11.0682,   2
  1101,'ANNER       ', 110.0000,1,     0.000,     0.000,   5,   1,1.05176,  -6.0949,   5
  1121,'ARKLOW      ', 110.0000,1,     0.000,     0.000,   6,   1,1.06719,  -5.3273,   1
  1122,'ARKLOW      ', 220.0000,1,     0.000,     0.000,   6,   1,1.06683,  -4.2739,   1
  1131,'ATHEA       ', 110.0000,1,     0.000,     0.000,   7,   1,1.04986,   3.4677,   4
  1141,'ATHLONE     ', 110.0000,1,     0.000,     0.000,   9,   1,1.06369,  -6.3173,   1
  1151,'ATHEA-2     ', 110.0000,1,     0.000,     0.000,   7,   1,1.04986,   3.4677,   1
  1161,'AUGHINIS    ', 110.0000,1,     0.000,     0.000,   7,   1,1.05000,  -0.8029,   1
  1181,'ARVA        ', 110.0000,1,     0.000,     0.000,  10,   1,1.04211, -11.1535,   1
  1201,'ARTANE      ', 110.0000,1,     0.000,     0.000,   1,   1,1.06315,  -7.5586,   2
  1211,'BALLYVOU    ', 110.0000,1,     0.000,     0.000,   3,   1,1.04837,   4.1023,   1
  1212,'BALLYVOU    ', 220.0000,1,     0.000,     0.000,   3,   1,1.05400,   3.1825,   1
  1221,'ATHY        ', 110.0000,1,     0.000,     0.000,   8,   1,1.05417,  -5.8592,   1
  1231,'BALLYWAT    ', 110.0000,1,     0.000,     0.000,   6,   1,1.06653,  -4.5267,   4
  1251,'BOOLTIAG    ', 110.0000,1,     0.000,     0.000,   4,   1,1.05453,  -2.9636,   2
  1271,'BALTRASN    ', 110.0000,1,     0.000,     0.000,  10,   1,1.04205,  -8.7947,   1
  1281,'BALLYLIC    ', 110.0000,1,     0.000,     0.000,   3,   1,1.04073,  -1.2423,   2
  1301,'BALLYBEG    ', 110.0000,1,     0.000,     0.000,   6,   1,1.06233,  -6.2009,   1
  1311,'CORDAL      ', 110.0000,1,     0.000,     0.000,   3,   1,1.05170,   4.8460,   1
  1321,'BLAKE       ', 110.0000,1,     0.000,     0.000,   8,   1,1.04927,  -7.5305,   2
  1341,'BINBANE     ', 110.0000,1,     0.000,     0.000,   9,   1,1.03024, -11.7169,   2
  1351,'BARODA      ', 110.0000,1,     0.000,     0.000,   8,   1,1.04803,  -7.9346,   1
  1361,'BALLYDIN    ', 110.0000,1,     0.000,     0.000,   5,   1,1.04976,  -5.6877,   1
  1381,'BARNAHEL    ', 110.0000,1,     0.000,     0.000,   3,   1,1.03761,   0.2831,   1
  1391,'BARNAHEL    ', 110.0000,1,     0.000,     0.000,   3,   1,1.04827,  -0.0995,   1
  1400,'BELLACOR    ', 110.0000,1,     0.000,     0.000,   9,   1,1.04249,  -7.8260,   1
  1401,'BELLACOR    ', 110.0000,1,     0.000,     0.000,   9,   1,1.04347, -10.3650,   1
  1404,'BELLACOR    ', 380.0000,1,     0.000,     0.000,   9,   1,1.04179,  -6.8255,   1
  1421,'BLACKROC    ', 110.0000,1,     0.000,     0.000,   1,   1,1.05448,  -9.0368,   2
  1431,'BALLYRAG    ', 110.0000,1,     0.000,     0.000,   6,   1,1.05033,  -6.7237,   1
  1441,'BANDON      ', 110.0000,1,     0.000,     0.000,   3,   1,1.03392,  -1.7709,   1
  1451,'CLOGHRAN    ', 110.0000,1,     0.000,     0.000,   1,   1,1.05245,  -7.6894,   1
  1461,'BARRYMOR    ', 110.0000,1,     0.000,     0.000,   5,   1,1.04177,  -1.8371,   2
  1471,'BELCAMP     ', 110.0000,1,     0.000,     0.000,   1,   1,1.06157,  -7.3691,   2
  1472,'BELCAMP     ', 220.0000,1,     0.000,     0.000,   1,   1,1.07472,  -4.3822,   2
  1481,'BUTLERST    ', 110.0000,1,     0.000,     0.000,   5,   1,1.05566,  -4.6524,   1
  1492,'BALLAKEL    ', 220.0000,1,     0.000,     0.000,  10,   1,1.04104,  -6.0407,   1
  1501,'BRINNY      ', 110.0000,1,     0.000,     0.000,   3,   1,1.03372,  -1.7837,   5
  1511,'KNOCKNAG    ', 110.0000,1,     0.000,     0.000,   7,   1,1.05000,   3.7655,   1
  1541,'BANOGE      ', 110.0000,1,     0.000,     0.000,   6,   1,1.06248,  -5.3188,   1
  1551,'BOGGERAG    ', 110.0000,1,     0.000,     0.000,   3,   1,1.05000,   5.4302,   1
  1571,'ARDNAGAP    ', 110.0000,1,     0.000,     0.000,   9,   1,1.00626, -13.2371,   2
  1581,'CABRA       ', 110.0000,1,     0.000,     0.000,   1,   1,1.06231,  -7.6189,   2
  1601,'CLASHAVO    ', 110.0000,1,     0.000,     0.000,   3,   1,1.04383,  -0.4731,   1
  1602,'CLASHAVO    ', 220.0000,1,     0.000,     0.000,   3,   1,1.04941,   2.8083,   1
  1611,'CLONKEEN    ', 110.0000,1,     0.000,     0.000,   7,   1,1.03815,  -1.9963,   1
  1621,'COOLROE     ', 110.0000,1,     0.000,     0.000,   3,   1,1.04070,  -0.8687,   1
  1631,'CORDERRY    ', 110.0000,1,     0.000,     0.000,   9,   1,1.05632,  -8.6789,   1
  1641,'CASHLA      ', 110.0000,1,     0.000,     0.000,   9,   1,1.06424,  -5.1373,   1
  1642,'CASHLA      ', 220.0000,1,     0.000,     0.000,   9,   1,1.06785,  -3.0121,   1
  1651,'CLAHANE     ', 110.0000,1,     0.000,     0.000,   7,   1,1.04992,  -2.3713,   1
  1661,'CASTLEBA    ', 110.0000,1,     0.000,     0.000,   9,   1,1.05000,  -9.9964,   1
  1681,'CARRIGAD    ', 110.0000,1,     0.000,     0.000,   3,   1,1.04224,  -0.6872,   1
  1691,'CENTRAL     ', 110.0000,1,     0.000,     0.000,   1,   1,1.05612,  -8.8930,   1
  1701,'CATH_FAL    ', 110.0000,1,     0.000,     0.000,   9,   1,1.05000, -10.5481,   1
  1711,'CROMCAST    ', 110.0000,1,     0.000,     0.000,   1,   1,1.06029,  -7.4649,   1
  1721,'CAHIR       ', 110.0000,1,     0.000,     0.000,   5,   1,1.05906,  -5.3441,   1
  1731,'CROMCAST    ', 110.0000,1,     0.000,     0.000,   1,   1,1.06029,  -7.4649,   1
  1741,'CARRICKM    ', 110.0000,1,     0.000,     0.000,   2,   1,1.05625,  -8.8503,   1
  1742,'CARRICKM    ', 220.0000,1,     0.000,     0.000,   2,   1,1.06782,  -5.3966,   1
  1761,'CLIFF       ', 110.0000,1,     0.000,     0.000,   9,   1,1.05108, -10.3578,   1
  1781,'CASTLEFA    ', 110.0000,1,     0.000,     0.000,   7,   1,1.04960,  -0.8238,   5
  1791,'BRACKLON    ', 110.0000,1,     0.000,     0.000,   8,   1,1.04893,  -7.0901,   1
  1801,'COOKSTOW    ', 110.0000,1,     0.000,     0.000,   1,   1,1.05917,  -6.7570,   2
  1821,'CLOON       ', 110.0000,1,     0.000,     0.000,   9,   1,1.05321,  -7.0771,   1
  1831,'SCREEB      ', 110.0000,1,     0.000,     0.000,   9,   1,1.04381,  -6.5914,   2
  1841,'CRANE       ', 110.0000,1,     0.000,     0.000,   6,   1,1.06519,  -4.7208,   1
  1851,'CHERRYWO    ', 110.0000,1,     0.000,     0.000,   2,   1,1.05328,  -9.0060,   1
  1861,'CARICKON    ', 110.0000,1,     0.000,     0.000,   9,   1,1.05358,  -8.8999,   1
  1871,'COLLEGE     ', 110.0000,1,     0.000,     0.000,   2,   1,1.05482,  -7.5004,   1
  1881,'CHARLEVI    ', 110.0000,1,     0.000,     0.000,   3,   1,1.02463,  -3.8787,   1
  1891,'CAULSTOW    ', 110.0000,1,     0.000,     0.000,  10,   1,1.03094,  -9.8020,   1
  1901,'CARLOW      ', 110.0000,1,     0.000,     0.000,   6,   1,1.05878,  -5.5430,   1
  1911,'CUILLEEN    ', 110.0000,1,     0.000,     0.000,   9,   1,1.06373,  -6.3184,   1
  1921,'COW CROS    ', 110.0000,1,     0.000,     0.000,   3,   1,1.03664,   0.1962,   1
  1931,'CUNGHILL    ', 110.0000,1,     0.000,     0.000,   9,   1,1.05128,  -9.5861,   4
  1941,'CUSHALIN    ', 110.0000,1,     0.000,     0.000,   8,   1,1.07500,  -4.3195,   1
  1951,'CARROWBE    ', 110.0000,1,     0.000,     0.000,   9,   1,1.03839, -10.9045,   1
  1961,'CASTLEVI    ', 110.0000,1,     0.000,     0.000,   3,   1,1.03666,  -0.1294,   1
  1971,'COOMAGEA    ', 110.0000,1,     0.000,     0.000,   7,   1,1.05000,   5.4912,   4
  1981,'CORRACL     ', 110.0000,1,     0.000,     0.000,   9,  19,1.04226, -12.4902,   1
  1991,'CASTLEDO    ', 110.0000,1,     0.000,     0.000,   6,   1,1.06703,  -3.8515,   1
  2001,'CULLENAG    ', 110.0000,1,     0.000,     0.000,   5,   1,1.05872,  -4.0933,   1
  2002,'CULLENAG    ', 220.0000,1,     0.000,     0.000,   5,   1,1.06718,  -0.9403,   1
  2011,'KNOCKNAG    ', 110.0000,1,     0.000,     0.000,   3,   1,1.04224,  -0.6872,   1
  2021,'CITY WES    ', 110.0000,1,     0.000,     0.000,   1,   1,1.01183, -12.3194,   2
  2041,'CORDUFF     ', 110.0000,1,     0.000,     0.000,   2,   1,1.05535,  -7.4192,   1
  2042,'CORDUFF     ', 220.0000,1,     0.000,     0.000,   2,   1,1.07500,  -3.9019,   1
  2051,'BLACKPOO    ', 110.0000,1,     0.000,     0.000,   3,   1,1.03403,  -1.0638,   1
  2052,'CORDUFFB    ', 220.0000,1,     0.000,     0.000,   2,   1,1.07500,  -3.9019,   1
  2081,'DUNKETTL    ', 110.0000,4,     0.000,     0.000,   3,   1,1.00000,   0.0000,   5
  2090,'WEST GAL    ', 110.0000,1,     0.000,     0.000,   9,   1,1.05249,  -4.2574,   1
  2091,'WEST GAL    ', 110.0000,1,     0.000,     0.000,   9,   1,1.05144,  -6.0325,   1
  2101,'DUNDALK     ', 110.0000,1,     0.000,     0.000,  10,   1,1.03417,  -9.7222,   2
  2111,'UGOOL       ', 110.0000,1,     0.000,     0.000,   9,   1,1.05000,  -3.5983,   1
  2121,'DRUMLINE    ', 110.0000,1,     0.000,     0.000,   4,   1,1.04750,  -4.5881,   1
  2131,'DROMADA     ', 110.0000,1,     0.000,     0.000,   3,   1,1.05000,   3.5584,   1
  2141,'DUNGARVA    ', 110.0000,1,     0.000,     0.000,   5,   1,1.03809,  -4.0248,   1
  2161,'DOON        ', 110.0000,1,     0.000,     0.000,   5,   1,1.05258,  -6.0435,   1
  2181,'DRYBRIDG    ', 110.0000,1,     0.000,     0.000,  10,   1,1.02999,  -9.9116,   1
  2202,'DUNSTOWN    ', 220.0000,1,     0.000,     0.000,   2,   1,1.07362,  -4.2766,   1
  2204,'DUNSTOWN    ', 380.0000,1,     0.000,     0.000,   2,   1,1.05298,  -2.8046,   1
  2221,'DUNMANWA    ', 110.0000,1,     0.000,     0.000,   3,   1,1.03833,  -1.3285,   1
  2231,'DERRYBRI    ', 110.0000,1,     0.000,     0.000,   4,   1,1.06173,  -2.5101,   2
  2241,'DALLOW      ', 110.0000,1,     0.000,     0.000,   5,   1,1.06393,  -4.6190,   2
  2251,'DARDISTO    ', 110.0000,1,     0.000,     0.000,   1,   1,1.06039,  -7.4618,   2
  2261,'DERRYIRO    ', 110.0000,1,     0.000,     0.000,   8,   1,1.04491,  -7.7118,   1
  2281,'DALTON      ', 110.0000,1,     0.000,     0.000,   9,   1,1.04611,  -8.5713,   1
  2301,'DUNFIRTH    ', 110.0000,1,     0.000,     0.000,   8,   1,1.04795,  -8.1247,   2
  2321,'DRUMKEEN    ', 110.0000,1,     0.000,     0.000,   9,   1,1.03048, -12.6718,   1
  2361,'ENNIS       ', 110.0000,1,     0.000,     0.000,   4,   1,1.04734,  -4.3621,   1
  2391,'KILL HIL    ', 110.0000,1,     0.000,     0.000,   5,   1,1.06063,  -5.0866,   1
  2401,'MOUNTLUC    ', 110.0000,1,     0.000,     0.000,   8,   1,1.05529,  -4.8844,   1
  2411,'KNOCKMUL    ', 110.0000,1,     0.000,     0.000,   6,   1,1.05951,  -4.5472,   1
  2481,'FASS EAS    ', 110.0000,1,     0.000,     0.000,   2,   1,1.05188,  -7.0009,   2
  2491,'FASS WES    ', 110.0000,1,     0.000,     0.000,   2,   1,1.05223,  -6.9851,   2
  2521,'FLAGFORD    ', 110.0000,1,     0.000,     0.000,   9,   1,1.05527,  -8.7392,   1
  2522,'FLAGFORD    ', 220.0000,1,     0.000,     0.000,   9,   1,1.06991,  -6.7687,   1
  2524,'FLAGFORD    ', 380.0000,1,     0.000,     0.000,   9,   1,1.03240,  -6.7798,   1
  2541,'FRN ST A    ', 110.0000,1,     0.000,     0.000,   1,   1,1.06283,  -8.4136,   2
  2551,'FRN ST B    ', 110.0000,1,     0.000,     0.000,   1,   1,1.05929,  -8.6589,   2
  2561,'FIN_URBA    ', 110.0000,1,     0.000,     0.000,   2,   1,1.06495,  -7.3777,   2
  2562,'FINGLAS     ', 220.0000,1,     0.000,     0.000,   2,   1,1.07500,  -4.0740,   1
  2563,'FINGLAS2    ', 220.0000,1,     0.000,     0.000,   2,   1,1.07500,  -4.0740,   1
  2571,'FIN_RURA    ', 110.0000,1,     0.000,     0.000,   2,   1,1.06027,  -7.3693,   2
  2581,'KILDONAN    ', 110.0000,1,     0.000,     0.000,   2,   1,1.05397,  -7.5886,   2
  2671,'GARVAGH     ', 110.0000,1,     0.000,     0.000,   9,   1,1.05620,  -8.4771,   4
  2681,'GILRA       ', 110.0000,1,     0.000,     0.000,   9,   1,1.05724,  -9.0249,   2
  2701,'GLASMORE    ', 110.0000,1,     0.000,     0.000,   1,   1,1.03627,  -8.6742,   2
  2721,'GRIFFINR    ', 110.0000,1,     0.000,     0.000,   2,   1,1.04995,  -7.8200,   2
  2731,'GLANLEE     ', 110.0000,1,     0.000,     0.000,   7,   1,1.04988,   5.5116,   4
  2741,'GREAT IS    ', 110.0000,1,     0.000,     0.000,   6,   1,1.06424,  -4.1807,   1
  2742,'GREAT IS    ', 220.0000,1,     0.000,     0.000,   6,   1,1.07500,  -0.7802,   1
  2761,'GRANGE      ', 110.0000,1,     0.000,     0.000,   1,   1,1.05975,  -7.4905,   2
  2771,'GARROW      ', 110.0000,1,     0.000,     0.000,   7,   1,1.04885,   4.8091,   7
  2780,'GALWAY      ', 110.0000,1,     0.000,     0.000,   9,   1,1.05473,  -5.5269,   1
  2781,'GALWAY      ', 110.0000,1,     0.000,     0.000,   9,   1,1.05473,  -5.5269,   1
  2801,'GOLAGH      ', 110.0000,1,     0.000,     0.000,   9,   1,1.04442, -11.1915,   4
  2821,'GORTAWEE    ', 110.0000,1,     0.000,     0.000,   9,   1,1.04148, -12.5824,   1
  2841,'GORMAN      ', 110.0000,1,     0.000,     0.000,  10,   1,1.02821,  -9.9370,   1
  2842,'GORMAN      ', 220.0000,1,     0.000,     0.000,  10,   1,1.04554,  -6.6727,   1
  2852,'GLANAGOW    ', 220.0000,1,     0.000,     0.000,   3,   1,1.04060,   4.0953,   1
  2861,'GRANGE C    ', 110.0000,1,     0.000,     0.000,   1,   1,1.03154, -11.0539,   2
  2870,'CLOGHER     ', 110.0000,1,     0.000,     0.000,   9,   1,1.04690, -11.1258,   1
  2871,'CLOGHER     ', 110.0000,1,     0.000,     0.000,   9,   1,1.04690, -11.1258,   1
  2881,'GLENLARA    ', 110.0000,1,     0.000,     0.000,   3,   1,1.01584,  -4.3003,   2
  2941,'HAROLDS     ', 110.0000,1,     0.000,     0.000,   1,   1,1.06383,  -8.3975,   2
  2951,'HEUSTON     ', 110.0000,1,     0.000,     0.000,   1,   1,1.05957,  -8.6405,   2
  2962,'HUNTSTOW    ', 220.0000,1,     0.000,     0.000,   2,   1,1.07525,  -3.9774,   4
  2972,'HUNTSTOW    ', 220.0000,1,     0.000,     0.000,   2,   1,1.07584,  -3.6365,   4
  2981,'HARTNETT    ', 110.0000,1,     0.000,     0.000,   3,   1,1.04109,  -0.7453,   2
  3061,'INISCARR    ', 110.0000,1,     0.000,     0.000,   3,   1,1.04224,  -0.7794,   1
  3081,'INCH_CIT    ', 110.0000,1,     0.000,     0.000,   2,   1,1.06005,  -8.5956,   2
  3082,'INCHICOR    ', 220.0000,1,     0.000,     0.000,   2,   1,1.07101,  -6.1097,   1
  3091,'INCH_COU    ', 110.0000,1,     0.000,     0.000,   2,   1,1.03665, -10.8333,   2
  3101,'IKERRIN     ', 110.0000,1,     0.000,     0.000,   5,   1,1.05798,  -5.3113,   2
  3122,'IRISHTOW    ', 220.0000,1,     0.000,     0.000,   2,   1,1.07436,  -5.2337,   1
  3190,'NORTH KE    ', 110.0000,1,     0.000,     0.000,   7,   1,1.05058,  -2.2457,   1
  3191,'NORTH KE    ', 110.0000,1,     0.000,     0.000,   7,   1,1.05280,   2.8273,   1
  3192,'NORTH KE    ', 220.0000,1,     0.000,     0.000,   7,   1,1.06893,   1.3864,   1
  3194,'NORTH KE    ', 380.0000,1,     0.000,     0.000,   7,   1,1.07424,   1.5425,   1
  3200,'KNOCKRAH    ', 110.0000,1,     0.000,     0.000,   3,   1,1.04071,  -0.0130,   1
  3201,'KNOCKRAH    ', 110.0000,1,     0.000,     0.000,   3,   1,1.04071,  -0.0130,   1
  3202,'KNOCKRAH    ', 220.0000,1,     0.000,     0.000,   3,   1,1.04254,   2.6135,   1
  3203,'KNOCKRAH    ', 220.0000,1,     0.000,     0.000,   3,   1,1.04557,   2.0613,   1
  3209,'KNOCKRAH    ', 110.0000,1,     0.000,     0.000,   3,   1,1.04071,  -0.0130,   1
  3211,'KNOCKAVA    ', 110.0000,1,     0.000,     0.000,   4,   1,1.06125,  -2.5765,   1
  3221,'KILBARRY    ', 110.0000,1,     0.000,     0.000,   3,   1,1.03407,  -1.0611,   1
  3241,'KILTEEL     ', 110.0000,1,     0.000,     0.000,   8,   1,1.05168,  -8.6431,   2
  3251,'REAMORE     ', 110.0000,1,     0.000,     0.000,   7,   1,1.04896,  -2.4793,   1
  3261,'KILKENNY    ', 110.0000,1,     0.000,     0.000,   6,   1,1.05373,  -6.8630,   1
  3281,'KILLONAN    ', 110.0000,1,     0.000,     0.000,   7,   1,1.04665,  -3.4210,   1
  3282,'KILLONAN    ', 220.0000,1,     0.000,     0.000,   7,   1,1.05434,  -1.5348,   1
  3301,'KNOCKERA    ', 110.0000,1,     0.000,     0.000,   7,   1,1.03409,  -3.0380,   1
  3321,'KNOCKUMB    ', 110.0000,1,     0.000,     0.000,  10,   1,1.01870, -10.5730,   5
  3330,'BALLYNAH    ', 110.0000,1,     0.000,     0.000,   3,   1,1.05060,   4.3855,   1
  3331,'BALLYNAH    ', 110.0000,1,     0.000,     0.000,   3,   1,1.05060,   4.3855,   1
  3332,'BALLYNAH    ', 220.0000,1,     0.000,     0.000,   3,   1,1.05756,   3.0969,   1
  3341,'KELLIS      ', 110.0000,1,     0.000,     0.000,   6,   1,1.06478,  -5.4546,   1
  3342,'KELLIS      ', 220.0000,1,     0.000,     0.000,   6,   1,1.06005,  -3.4815,   1
  3361,'KILTOY      ', 110.0000,1,     0.000,     0.000,   9,   1,1.02134, -13.4571,   5
  3381,'KINNEGAD    ', 110.0000,1,     0.000,     0.000,   8,   1,1.04512,  -8.3241,   1
  3391,'KNOCKACU    ', 110.0000,1,     0.000,     0.000,   3,   1,1.05000,   5.4648,   1
  3401,'KILLOTER    ', 110.0000,1,     0.000,     0.000,   5,   1,1.05666,  -4.6052,   1
  3421,'KILMORE     ', 110.0000,1,     0.000,     0.000,   1,   1,1.06027,  -7.4645,   2
...
0 / END OF BUS DATA, BEGIN LOAD DATA
    10,'LD',1,   2,   1,    74.300,    12.330,     0.000,     0.000,     0.000,     0.000,   2
    11,'LD',1,   2,   1,    46.070,     9.160,     0.000,     0.000,     0.000,     0.000,   2
    12,'LD',1,   1,   1,    60.630,    19.930,     0.000,     0.000,     0.000,     0.000,   2
    13,'LD',1,   1,   1,    50.620,    16.800,     0.000,     0.000,     0.000,     0.000,   2
    14,'LD',1,   2,   1,    52.500,    17.260,     0.000,     0.000,     0.000,     0.000,   2
    15,'LD',1,   2,   1,    68.540,    22.520,     0.000,     0.000,     0.000,     0.000,   2
  1041,'LD',1,   3,   1,     0.790,     0.450,     0.000,     0.000,     0.000,     0.000,   2
  1101,'I ',1,   5,   2,    11.000,     6.000,     0.000,     0.000,     0.000,     0.000,   5
  1101,'MI',1,   5,   2,     5.620,    -1.020,     0.000,     0.000,     0.000,     0.000,   5
  4341,'I ',1,   3,   2,     1.300,     0.390,     0.000,     0.000,     0.000,     0.000,   5
 10204,'LD',1,   4,   1,    30.640,    12.160,     0.000,     0.000,     0.000,     0.000,   2
 10205,'LD',1,   4,   1,    30.640,    12.160,     0.000,     0.000,     0.000,     0.000,   2
 10470,'HL',1,   3,   1,     9.500,     3.420,     0.000,     0.000,     0.000,     0.000,   1
 10471,'HL',0,   3,   1,    11.990,     4.310,     0.000,     0.000,     0.000,     0.000,   3
 10602,'LD',1,   9,   1,     3.520,     1.360,     0.000,     0.000,     0.000,     0.000,   2
 10801,'LD',1,   7,   1,     6.100,     1.260,     0.000,     0.000,     0.000,     0.000,   2
 10901,'I ',1,   1,   2,     9.500,     3.120,     0.000,     0.000,     0.000,     0.000,   5
 10901,'LD',1,   1,   1,     6.380,     2.070,     0.000,     0.000,     0.000,     0.000,   2
 11201,'LD',1,   6,   1,     6.740,     2.210,     0.000,     0.000,     0.000,     0.000,   2
 11204,'LD',1,   6,   1,    15.190,     5.040,     0.000,     0.000,     0.000,     0.000,   2
 11404,'LD',1,   9,   1,    64.820,    23.310,     0.000,     0.000,     0.000,     0.000,   2
 12001,'LD',1,   1,   1,    17.650,     2.020,     0.000,     0.000,     0.000,     0.000,   2
 12201,'LD',1,   8,   1,    17.980,     2.750,     0.000,     0.000,     0.000,     0.000,   2
 12702,'LD',1,  10,   1,    16.510,     1.300,     0.000,     0.000,     0.000,     0.000,   2
 12804,'LD',1,   3,   1,    12.840,     0.750,     0.000,     0.000,     0.000,     0.000,   2
 13001,'LD',1,   6,   1,    14.110,     2.090,     0.000,     0.000,     0.000,     0.000,   2
 13204,'LD',1,   8,   1,    12.520,     4.210,     0.000,     0.000,     0.000,     0.000,   2
 13404,'LD',1,   9,   1,    15.890,     4.230,     0.000,     0.000,     0.000,     0.000,   2
 13501,'I ',1,   8,   2,     9.500,     2.850,     0.000,     0.000,     0.000,     0.000,   5
 13501,'LD',1,   8,   1,    12.350,     3.950,     0.000,     0.000,     0.000,     0.000,   2
 13601,'I ',1,   5,   2,     5.290,     1.460,     0.000,     0.000,     0.000,     0.000,   5
 13601,'MI',1,   5,   2,     3.920,     1.300,     0.000,     0.000,     0.000,     0.000,   5
 13604,'LD',1,   5,   1,    13.650,     3.680,     0.000,     0.000,     0.000,     0.000,   2
 13802,'LD',1,   3,   1,    18.770,     7.660,     0.000,     0.000,     0.000,     0.000,   2
 13804,'LD',1,   3,   1,    15.170,     2.450,     0.000,     0.000,     0.000,     0.000,   2
 14004,'LD',1,   9,   1,     8.280,     2.700,     0.000,     0.000,     0.000,     0.000,   2
 14204,'LD',1,   1,   1,    49.290,     3.640,     0.000,     0.000,     0.000,     0.000,   2
 14304,'LD',1,   6,   1,    24.100,     7.900,     0.000,     0.000,     0.000,     0.000,   2
 14401,'LD',1,   3,   1,     5.380,     1.040,     0.000,     0.000,     0.000,     0.000,   2
 14404,'LD',1,   3,   1,    36.870,    12.860,     0.000,     0.000,     0.000,     0.000,   2
 14502,'I ',1,   1,   2,    23.750,     7.800,     0.000,     0.000,     0.000,     0.000,   5
 14604,'LD',1,   5,   1,    25.930,     7.530,     0.000,     0.000,     0.000,     0.000,   2
 14804,'LD',1,   5,   1,    42.330,     8.610,     0.000,     0.000,     0.000,     0.000,   2
 14902,'HL',0,  10,   1,     4.940,     1.780,     0.000,     0.000,     0.000,     0.000,   1
 15001,'I ',1,   3,   2,     4.590,     1.700,     0.000,     0.000,     0.000,     0.000,   5
 15001,'MI',1,   3,   2,     1.580,     0.150,     0.000,     0.000,     0.000,     0.000,   5
 15402,'LD',1,   6,   1,    15.510,     5.100,     0.000,     0.000,     0.000,     0.000,   2
 15704,'LD',1,   9,   1,    14.680,     4.870,     0.000,     0.000,     0.000,     0.000,   2
 15801,'LD',1,   1,   1,    14.920,     3.800,     0.000,     0.000,     0.000,     0.000,   2
 16202,'LD',1,   3,   1,    11.470,     0.930,     0.000,     0.000,     0.000,     0.000,   2
 16604,'LD',1,   9,   1,    29.340,     6.910,     0.000,     0.000,     0.000,     0.000,   2
 16901,'LD',1,   1,   1,     6.190,     1.850,     0.000,     0.000,     0.000,     0.000,   2
 17004,'LD',1,   9,   1,    20.900,     6.870,     0.000,     0.000,     0.000,     0.000,   2
 17204,'LD',1,   5,   1,    24.700,     4.820,     0.000,     0.000,     0.000,     0.000,   2
 17404,'LD',1,   2,   1,    82.810,    13.550,     0.000,     0.000,     0.000,     0.000,   2
 17802,'I ',1,   7,   2,    49.000,    14.700,     0.000,     0.000,     0.000,     0.000,   5
 17901,'LD',1,   8,   1,    12.840,     4.250,     0.000,     0.000,     0.000,     0.000,   2
 18001,'LD',1,   1,   1,     3.950,     1.280,     0.000,     0.000,     0.000,     0.000,   2
 18004,'LD',1,   1,   1,    81.430,    22.010,     0.000,     0.000,     0.000,     0.000,   2
 18204,'LD',1,   9,   1,    31.530,    10.530,     0.000,     0.000,     0.000,     0.000,   2
 18304,'LD',1,   9,   1,    13.830,     4.540,     0.000,     0.000,     0.000,     0.000,   2
 18402,'LD',1,   6,   1,    16.560,     4.000,     0.000,     0.000,     0.000,     0.000,   2
 18404,'LD',1,   6,   1,    18.990,     5.310,     0.000,     0.000,     0.000,     0.000,   2
 18504,'I ',1,   2,   2,    19.000,     6.240,     0.000,     0.000,     0.000,     0.000,   5
 18504,'LD',1,   2,   1,    26.270,     8.630,     0.000,     0.000,     0.000,     0.000,   2
 18604,'LD',1,   9,   1,    32.380,     6.660,     0.000,     0.000,     0.000,     0.000,   2
 18701,'LD',1,   2,   1,    23.400,     4.330,     0.000,     0.000,     0.000,     0.000,   2
 18804,'LD',1,   3,   1,    20.070,     5.970,     0.000,     0.000,     0.000,     0.000,   2
 18901,'HL',0,  10,   1,     0.980,     0.350,     0.000,     0.000,     0.000,     0.000,   1
 19004,'LD',1,   6,   1,    54.820,    14.830,     0.000,     0.000,     0.000,     0.000,   2
 19204,'LD',1,   3,   1,    13.860,     3.420,     0.000,     0.000,     0.000,     0.000,   2
 19471,'HL',1,   8,   1,    11.970,     4.300,     0.000,     0.000,     0.000,     0.000,   4
 19504,'LD',1,   9,   1,    22.730,     4.940,     0.000,     0.000,     0.000,     0.000,   2
 19601,'LD',1,   3,   1,    23.000,     5.500,     0.000,     0.000,     0.000,     0.000,   2
 20201,'LD',1,   1,   1,    24.280,     7.900,     0.000,     0.000,     0.000,     0.000,   2
 20501,'LD',1,   3,   1,    19.760,     6.220,     0.000,     0.000,     0.000,     0.000,   2
 21004,'LD',1,  10,   1,    45.740,     7.640,     0.000,     0.000,     0.000,     0.000,   2
 21202,'LD',1,   4,   1,    10.670,     3.460,     0.000,     0.000,     0.000,     0.000,   2
 21204,'LD',1,   4,   1,    17.680,     3.960,     0.000,     0.000,     0.000,     0.000,   2
 21404,'LD',1,   5,   1,    44.210,     9.160,     0.000,     0.000,     0.000,     0.000,   2
 21604,'LD',1,   5,   1,    27.960,     6.870,     0.000,     0.000,     0.000,     0.000,   2
 21804,'LD',1,  10,   1,    83.050,    19.650,     0.000,     0.000,     0.000,     0.000,   2
 22204,'LD',1,   3,   1,    33.350,     8.510,     0.000,     0.000,     0.000,     0.000,   2
 22404,'LD',1,   5,   1,    18.130,     4.320,     0.000,     0.000,     0.000,     0.000,   2
 22501,'I ',1,   1,   2,    10.450,     3.434,     0.000,     0.000,     0.000,     0.000,   5
 22671,'HL',0,   8,   1,     0.300,     0.100,     0.000,     0.000,     0.000,     0.000,   1
 22672,'HL',0,   8,   1,     0.300,     0.100,     0.000,     0.000,     0.000,     0.000,   1
 22804,'LD',1,   9,   1,    25.390,     6.470,     0.000,     0.000,     0.000,     0.000,   2
 23001,'LD',1,   8,   1,     9.660,     0.650,     0.000,     0.000,     0.000,     0.000,   2
 23604,'LD',1,   4,   1,    61.420,    13.410,     0.000,     0.000,     0.000,     0.000,   2
 24104,'LD',1,   6,   1,    15.950,     5.240,     0.000,     0.000,     0.000,     0.000,   2
 24804,'LD',1,   2,   1,    59.500,    22.550,     0.000,     0.000,     0.000,     0.000,   2
 25604,'LD',1,   2,   1,    78.110,    15.260,     0.000,     0.000,     0.000,     0.000,   2
 26802,'I ',1,   9,   2,    10.440,     3.130,     0.000,     0.000,     0.000,     0.000,   5
 26802,'MI',1,   9,   2,     0.060,     0.020,     0.000,     0.000,     0.000,     0.000,   5
 27004,'LD',1,   1,   1,    72.720,    25.510,     0.000,     0.000,     0.000,     0.000,   2
 27204,'LD',1,   2,   1,    66.840,    21.020,     0.000,     0.000,     0.000,     0.000,   2
 27404,'LD',1,   6,   1,     1.920,     1.030,     0.000,     0.000,     0.000,     0.000,   2
 27474,'HL',0,   6,   1,     8.490,     3.050,     0.000,     0.000,     0.000,     0.000,   1
 27604,'LD',1,   1,   1,    57.760,    17.170,     0.000,     0.000,     0.000,     0.000,   2
 27801,'LD',1,   9,   1,    21.530,     6.470,     0.000,     0.000,     0.000,     0.000,   2
 27804,'LD',1,   9,   1,    68.520,    20.600,     0.000,     0.000,     0.000,     0.000,   2
 28201,'I ',1,   9,   2,    20.900,     6.270,     0.000,     0.000,     0.000,     0.000,   5
 28204,'LD',1,   9,   1,    11.470,     3.250,     0.000,     0.000,     0.000,     0.000,   2
 28571,'HL',1,   3,   1,     4.560,     1.640,     0.000,     0.000,     0.000,     0.000,   1
 28601,'I ',1,   1,   2,     9.000,     2.700,     0.000,     0.000,     0.000,     0.000,   5
 28601,'LD',1,   1,   1,    11.080,     1.350,     0.000,     0.000,     0.000,     0.000,   2
 28604,'LD',1,   1,   1,    51.380,     8.820,     0.000,     0.000,     0.000,     0.000,   2
 28611,'I ',1,   1,   2,     9.000,     2.700,     0.000,     0.000,     0.000,     0.000,   5
 28804,'LD',1,   3,   1,    17.340,     4.170,     0.000,     0.000,     0.000,     0.000,   2
 29401,'LD',1,   1,   1,    17.110,     5.320,     0.000,     0.000,     0.000,     0.000,   2
 29501,'LD',1,   1,   1,     5.630,     1.780,     0.000,     0.000,     0.000,     0.000,   2
 29672,'HL',1,   2,   1,     6.690,     2.410,     0.000,     0.000,     0.000,     0.000,   4
 29801,'LD',1,   3,   1,     8.800,     2.860,     0.000,     0.000,     0.000,     0.000,   2
 30804,'LD',1,   2,   1,    50.450,    16.660,     0.000,     0.000,     0.000,     0.000,   2
 31004,'LD',1,   5,   1,    27.320,     8.120,     0.000,     0.000,     0.000,     0.000,   2
 31271,'HL',1,   2,   1,     6.220,     2.240,     0.000,     0.000,     0.000,     0.000,   4
 32201,'LD',1,   3,   1,    16.840,     2.610,     0.000,     0.000,     0.000,     0.000,   2
 32204,'LD',1,   3,   1,    56.390,     7.630,     0.000,     0.000,     0.000,     0.000,   2
 32404,'LD',1,   8,   1,    33.890,    13.430,     0.000,     0.000,     0.000,     0.000,   2
 32604,'LD',1,   6,   1,    53.620,    21.230,     0.000,     0.000,     0.000,     0.000,   2
 33004,'LD',1,   7,   1,    34.270,     8.090,     0.000,     0.000,     0.000,     0.000,   2
 33201,'I ',1,  10,   2,    23.000,     6.900,     0.000,     0.000,     0.000,     0.000,   5
 33201,'MI',1,  10,   2,     6.440,     1.930,     0.000,     0.000,     0.000,     0.000,   5
 33801,'I ',1,   8,   2,    10.220,     3.060,     0.000,     0.000,     0.000,     0.000,   5
 33801,'MI',1,   8,   2,     1.500,     0.450,     0.000,     0.000,     0.000,     0.000,   5
 34001,'LD',1,   5,   1,    13.490,     3.400,     0.000,     0.000,     0.000,     0.000,   2
 34201,'LD',1,   1,   1,    21.730,     5.930,     0.000,     0.000,     0.000,     0.000,   2
 34301,'I ',1,   1,   2,    23.750,     7.120,     0.000,     0.000,     0.000,     0.000,   5
 35004,'LD',1,   9,   1,    12.570,     4.480,     0.000,     0.000,     0.000,     0.000,   2
 35074,'HL',1,   9,   1,     9.270,     3.330,     0.000,     0.000,     0.000,     0.000,   3
 35404,'LD',1,   7,   1,    76.110,    13.330,     0.000,     0.000,     0.000,     0.000,   2
 35604,'LD',1,  10,   1,    28.120,     7.050,     0.000,     0.000,     0.000,     0.000,   2
 35804,'LD',1,   9,   1,    64.330,    12.270,     0.000,     0.000,     0.000,     0.000,   2
 36001,'LD',1,   3,   1,    23.490,     6.300,     0.000,     0.000,     0.000,     0.000,   2
 36201,'I ',1,   5,   2,    16.600,     3.600,     0.000,     0.000,     0.000,     0.000,   5
 36201,'MI',1,   5,   2,     2.390,     2.100,     0.000,     0.000,     0.000,     0.000,   5
 37501,'LD',1,   1,   1,    19.970,     2.780,     0.000,     0.000,     0.000,     0.000,   2
 37601,'LD',1,   1,   1,    26.710,     5.260,     0.000,     0.000,     0.000,     0.000,   2
 37602,'I ',1,   1,   2,     5.000,     1.500,     0.000,     0.000,     0.000,     0.000,   5
 37602,'MI',1,   1,   2,     5.440,     1.630,     0.000,     0.000,     0.000,     0.000,   5
 38001,'LD',1,   3,   1,    15.350,     2.350,     0.000,     0.000,     0.000,     0.000,   2
 38004,'LD',1,   3,   1,    19.350,     4.440,     0.000,     0.000,     0.000,     0.000,   2
 38204,'LD',1,  10,   1,    49.230,    20.160,     0.000,     0.000,     0.000,     0.000,   2
 38601,'LD',1,   1,   1,     9.160,     1.460,     0.000,     0.000,     0.000,     0.000,   2
 38701,'LD',1,   1,   1,    12.950,     3.360,     0.000,     0.000,     0.000,     0.000,   2
 38804,'LD',1,   3,   1,     9.120,    -0.240,     0.000,     0.000,     0.000,     0.000,   2
 39471,'HL',1,   4,   1,    19.230,     6.920,     0.000,     0.000,     0.000,     0.000,   3
 39472,'HL',1,   4,   1,    19.230,     6.920,     0.000,     0.000,     0.000,     0.000,   3
 39473,'HL',1,   4,   1,    19.230,     6.920,     0.000,     0.000,     0.000,     0.000,   3
 39601,'LD',1,   3,   1,    16.860,     4.940,     0.000,     0.000,     0.000,     0.000,   2
 39675,'HL',0,   3,   1,     5.000,     1.800,     0.000,     0.000,     0.000,     0.000,   3
 39801,'I ',1,   7,   2,    22.000,     6.600,     0.000,     0.000,     0.000,     0.000,   5
 39801,'MI',1,   7,   2,     1.500,     0.450,     0.000,     0.000,     0.000,     0.000,   5
 40001,'LD',1,   9,   1,    14.080,     4.440,     0.000,     0.000,     0.000,     0.000,   2
 40004,'LD',1,   9,   1,    37.660,     9.230,     0.000,     0.000,     0.000,     0.000,   2
 40204,'LD',1,   3,   1,    22.650,     5.850,     0.000,     0.000,     0.000,     0.000,   2
 40404,'LD',1,   9,   1,    27.890,     4.930,     0.000,     0.000,     0.000,     0.000,   2
 40602,'I ',1,  10,   2,     5.180,     1.550,     0.000,     0.000,     0.000,     0.000,   5
 40602,'MI',1,  10,   2,     2.420,     0.730,     0.000,     0.000,     0.000,     0.000,   5
 40604,'LD',1,  10,   1,    29.090,     9.550,     0.000,     0.000,     0.000,     0.000,   2
 40801,'LD',1,   8,   1,    12.460,     2.170,     0.000,     0.000,     0.000,     0.000,   2
 41002,'I ',1,   1,   2,    18.000,     5.900,     0.000,     0.000,     0.000,     0.000,   5
 41102,'I ',1,   1,   2,    24.000,    11.630,     0.000,     0.000,     0.000,     0.000,   5
 42004,'LD',1,   8,   1,    28.210,     5.320,     0.000,     0.000,     0.000,     0.000,   2
 42102,'LD',1,   1,   1,    14.920,     2.330,     0.000,     0.000,     0.000,     0.000,   2
 42204,'LD',1,  10,   1,    70.110,    16.420,     0.000,     0.000,     0.000,     0.000,   2
 42501,'HL',0,   6,   1,     3.970,     1.430,     0.000,     0.000,     0.000,     0.000,   1
 42604,'LD',1,   7,   1,    28.150,     9.280,     0.000,     0.000,     0.000,     0.000,   2
 42802,'I ',1,   1,   2,    26.000,     7.800,     0.000,     0.000,     0.000,     0.000,   5
 43604,'LD',1,   7,   1,    26.780,     5.180,     0.000,     0.000,     0.000,     0.000,   2
 44001,'LD',1,   1,   1,    23.170,     2.700,     0.000,     0.000,     0.000,     0.000,   2
 44802,'LD',1,   8,   1,     9.380,     3.060,     0.000,     0.000,     0.000,     0.000,   2
 44804,'LD',1,   8,   1,    31.130,     8.040,     0.000,     0.000,     0.000,     0.000,   2
 44901,'LD',1,   1,   1,    20.650,     2.110,     0.000,     0.000,     0.000,     0.000,   2
 45001,'I ',1,  10,   2,    29.000,     9.100,     0.000,     0.000,     0.000,     0.000,   5
 45001,'MI',1,  10,   2,     3.290,     0.580,     0.000,     0.000,     0.000,     0.000,   5
 45101,'LD',1,   1,   1,    15.250,     2.180,     0.000,     0.000,     0.000,     0.000,   2
 46102,'I ',1,   7,   2,    61.000,    18.300,     0.000,     0.000,     0.000,     0.000,   5
 46210,'I ',1,   2,   2,    34.840,    10.450,     0.000,     0.000,     0.000,     0.000,   5
 46214,'I ',1,   2,   2,    34.840,    10.450,     0.000,     0.000,     0.000,     0.000,   5
 46224,'I ',1,   2,   2,    34.840,    10.450,     0.000,     0.000,     0.000,     0.000,   5
 46501,'LD',1,   1,   1,     0.910,     0.300,     0.000,     0.000,     0.000,     0.000,   2
 46511,'HL',1,   1,   1,     9.360,     3.360,     0.000,     0.000,     0.000,     0.000,   1
 46804,'LD',1,   7,   1,    25.210,     7.250,     0.000,     0.000,     0.000,     0.000,   2
 47004,'LD',1,   9,   1,    32.670,     9.820,     0.000,     0.000,     0.000,     0.000,   2
 47402,'I ',1,   2,   2,    15.200,     4.560,     0.000,     0.000,     0.000,     0.000,   5
 47601,'LD',1,   3,   1,     4.850,     1.130,     0.000,     0.000,     0.000,     0.000,   2
 49001,'I ',1,   6,   2,     2.290,     0.680,     0.000,     0.000,     0.000,     0.000,   5
 49474,'HL',1,   5,   1,    13.240,     4.760,     0.000,     0.000,     0.000,     0.000,   3
 49501,'LD',1,   9,   1,    26.820,     3.260,     0.000,     0.000,     0.000,     0.000,   2
 49504,'LD',1,   9,   1,    25.680,     7.310,     0.000,     0.000,     0.000,     0.000,   2
 49604,'LD',1,  10,   1,    58.010,    17.500,     0.000,     0.000,     0.000,     0.000,   2
 49804,'LD',1,   9,   1,    62.070,    13.560,     0.000,     0.000,     0.000,     0.000,   2
 50004,'LD',1,   9,   1,    22.660,     6.010,     0.000,     0.000,     0.000,     0.000,   2
 50276,'HL',1,   2,   1,     8.820,     3.170,     0.000,     0.000,     0.000,     0.000,   3
 50301,'LD',1,   1,   1,    12.840,     4.220,     0.000,     0.000,     0.000,     0.000,   2
 50573,'HL',1,   7,   1,     0.980,     0.350,     0.000,     0.000,     0.000,     0.000,   4
 50574,'HL',1,   7,   1,     0.980,     0.350,     0.000,     0.000,     0.000,     0.000,   4
 50604,'LD',1,   6,   1,    21.950,     4.890,     0.000,     0.000,     0.000,     0.000,   2
...
0 / END OF LOAD DATA, BEGIN GENERATOR DATA
 10271,'1 ',    21.000,     8.596,    15.000,    -7.000,1.05000,  1021,    34.000,   0.00000,   0.22000,   0.00000,   0.00000,1.00000,1,   15.0,    21.000,     5.000,   3,1.0000
 10272,'2 ',    22.000,     8.596,    15.000,    -7.000,1.05000,  1021,    34.000,   0.00000,   0.22000,   0.00000,   0.00000,1.00000,1,   15.0,    22.000,     5.000,   3,1.0000
 10273,'3 ',    19.000,     8.596,    15.000,    -7.000,1.05000,  1021,    34.000,   0.00000,   0.22000,   0.00000,   0.00000,1.00000,1,   15.0,    19.000,     5.000,   3,1.0000
 10274,'4 ',    24.000,     8.596,    15.000,    -7.000,1.05000,  1021,    34.000,   0.00000,   0.22000,   0.00000,   0.00000,1.00000,1,   15.0,    24.000,     5.000,   3,1.0000
 10275,'3 ',     2.297,     0.000,     0.000,     0.000,1.05000,     0,     8.350,   0.00920,   0.16210,   0.00000,   0.00000,1.00000,1,    2.3,     7.500,     0.000,   7,1.0000
 10276,'2 ',     0.202,     0.000,     0.000,     0.000,1.05000,     0,     0.850,   0.00730,   0.13500,   0.00000,   0.00000,1.00000,1,    0.2,     0.660,     0.000,   7,1.0000
 10470,'1 ',   330.000,   -50.171,   270.000,  -170.000,1.04000,  1062,   500.000,   0.00270,   0.18000,   0.00000,   0.00000,1.00000,1,  250.0,   443.000,   222.000,   1,1.0000
 10471,'1 ',   270.000,     0.000,   159.000,   -75.000,1.07500,  1062,   318.800,   0.00000,   0.22500,   0.00000,   0.00000,1.00000,0,  153.0,   270.000,    40.000,   3,1.0000
 10472,'11',    90.000,     0.000,    60.000,   -30.000,1.07500,  1062,   100.900,   0.00000,   0.12500,   0.00000,   0.00000,1.00000,0,   60.0,    90.000,    13.000,   3,1.0000
 10473,'12',    90.000,     0.000,    60.000,   -30.000,1.07500,  1062,   100.900,   0.00000,   0.12500,   0.00000,   0.00000,1.00000,0,   60.0,    90.000,    13.000,   3,1.0000
 10474,'14',    90.000,     0.000,    60.000,   -30.000,1.07500,  1062,   100.900,   0.00000,   0.12500,   0.00000,   0.00000,1.00000,0,   60.0,    90.000,    13.000,   3,1.0000
 10671,'2 ',     1.470,    -1.940,    -1.940,    -1.940,1.04000,     0,     4.800,   0.02040,   0.33060,   0.00000,   0.00000,1.00000,1,    1.5,     4.800,     0.000,   7,1.0000
 10672,'3 ',     1.532,    -2.000,    -2.000,    -2.000,1.04000,     0,     6.000,   0.02040,   0.33060,   0.00000,   0.00000,1.00000,1,    1.6,     5.000,     0.000,   7,1.0000
 10673,'1 ',     0.368,    -0.480,    -0.480,    -0.480,1.05000,     0,     1.200,   0.02040,   0.33060,   0.00000,   0.00000,1.00000,1,    0.4,     1.200,     0.000,   7,1.0000
 10674,'5 ',     1.409,    -1.824,    -1.770,    -2.300,1.04000,     0,     4.600,   0.02570,   0.73700,   0.00000,   0.00000,1.00000,1,    1.7,     4.600,     0.000,   7,1.0000
 11204,'1 ',     1.000,     0.000,     0.000,     0.000,1.00000,     0,     1.600,   0.00000,   0.20000,   0.01000,   0.06000,1.00000,0,  100.0,     1.000,     0.000,   2,1.0000
 11271,'1 ',     7.719,     0.000,     0.000,     0.000,1.04000,     0,    28.000,   0.00320,   0.12400,   0.00000,   0.00000,1.00000,1,    7.9,    25.200,     0.000,   7,1.0000
 11370,'1 ',     6.739,    -3.067,     5.590,    -5.590,1.05000,  2131,    30.000,   0.00000,   0.57860,   0.00000,   0.00000,1.00000,1,    5.7,    22.000,     0.000,   7,1.0000
 11371,'1 ',    15.622,   -10.761,    20.000,   -20.000,1.05000,  2131,    66.000,   0.00000,   0.57860,   0.00000,   0.00000,1.00000,1,   20.0,    51.000,     0.000,   7,1.0000
 11374,'DW',     1.225,    -0.667,     1.310,    -1.310,1.05000,  2131,     4.000,   0.00900,   0.14800,   0.00000,   0.00000,1.00000,1,    1.2,     4.000,     0.000,   7,1.0000
 11375,'DW',     1.103,    -0.603,     1.180,    -1.180,1.05000,  2131,     4.000,   0.00900,   0.14800,   0.00000,   0.00000,1.00000,1,    1.1,     3.600,     0.000,   7,1.0000
 12371,'1 ',     9.649,    -7.000,     7.000,    -7.000,1.05000,  1231,    32.000,   0.02570,   0.73700,   0.00000,   0.00000,1.00000,1,    7.0,    31.500,     0.000,   7,1.0000
 12372,'2 ',     3.216,     0.000,     0.000,     0.000,1.05000,  1231,    10.000,   0.02570,   0.73700,   0.00000,   0.00000,1.00000,1,    3.5,    10.500,     0.000,   7,1.0000
 12571,'1 ',     5.958,     0.000,     0.000,     0.000,1.05000,  1251,    25.050,   0.00920,   0.16210,   0.00000,   0.00000,1.00000,1,    6.4,    19.450,     0.000,   7,1.0000
 12572,'TW',     0.919,    -0.990,     0.990,    -0.990,1.05000,  1251,     3.340,   0.00920,   0.16210,   0.00000,   0.00000,1.00000,1,    1.0,     3.000,     0.000,   7,1.0000
 12573,'TW',     2.757,    -2.960,     2.960,    -2.960,1.05000,  1251,    10.020,   0.00920,   0.16210,   0.00000,   0.00000,1.00000,1,    3.0,     9.000,     0.000,   7,1.0000
 12871,'DW',     0.705,     0.000,     0.000,    -0.660,1.05000,  1281,     2.300,   0.02570,   0.73700,   0.00000,   0.00000,1.00000,1,    0.6,     2.300,     0.000,   7,1.0000
 12872,'DW',     2.573,     0.000,     0.000,    -2.760,1.05000,  1281,     9.200,   0.02570,   0.73700,   0.00000,   0.00000,1.00000,1,    2.6,     8.400,     0.000,   7,1.0000
 12873,'1 ',     5.988,     0.000,     0.000,     0.000,1.05000,  1281,    20.700,   0.02570,   0.73700,   0.00000,   0.00000,1.00000,1,    6.1,    19.550,     0.000,   7,1.0000
 12874,'1 ',     2.604,     0.000,     0.000,     0.000,1.05000,  1281,     8.500,   0.00210,   0.08600,   0.00000,   0.00000,1.00000,1,    2.7,     8.500,     0.000,   7,1.0000
 13170,'1 ',     7.336,     0.000,     0.000,     0.000,1.05000,  1311,    25.300,   0.02570,   0.73700,   0.00000,   0.00000,1.00000,1,    4.6,    23.950,     0.000,   7,1.0000
 13171,'1 ',     3.063,     0.000,     0.000,     0.000,1.05000,  1311,    10.000,   0.00900,   0.14800,   0.00000,   0.00000,1.00000,1,    6.0,    10.000,     0.000,   7,1.0000
 13173,'DW',     2.604,     0.000,     0.000,     0.000,1.05000,  1311,    10.500,   0.00900,   0.14800,   0.00000,   0.00000,1.00000,1,    6.0,     8.500,     0.000,   7,1.0000
 13174,'DW',    10.981,     0.000,     0.000,     0.000,1.05000,  1311,    36.000,   0.02570,   0.73700,   0.00000,   0.00000,1.00000,1,   11.0,    35.850,     0.000,   7,1.0000
 13175,'DW',     3.523,     0.000,     0.000,     0.000,1.05000,  1311,    11.500,   0.02570,   0.73700,   0.00000,   0.00000,1.00000,1,    3.7,    11.500,     0.000,   7,1.0000
 13176,'DW',     5.514,     0.000,     0.000,     0.000,1.05000,  1311,    18.750,   0.00900,   0.16600,   0.00000,   0.00000,1.00000,1,    5.6,    18.000,     0.000,   7,1.0000
 13434,'10',     4.300,     0.000,     0.000,     0.000,1.00000,     0,     4.500,   0.00000,   0.20000,   0.00000,   0.10000,1.00000,1,    1.0,     4.300,     0.000,   1,1.0000
 13471,'1 ',     0.202,     0.000,     0.000,     0.000,1.05000,  1341,     0.660,   0.02040,   0.33060,   0.00000,   0.00000,1.00000,1,    0.2,     0.660,     0.000,   7,1.0000
 13472,'DW',     0.781,     0.000,     0.000,    -0.840,1.05000,  1341,     2.700,   0.03020,   0.86600,   0.00000,   0.00000,1.00000,1,    0.8,     2.550,     0.000,   7,1.0000
 13473,'4 ',     3.063,     0.000,     0.000,     0.000,1.05000,  1341,    10.000,   0.00320,   0.12400,   0.00000,   0.00000,1.00000,1,    4.7,    10.000,     0.000,   7,1.0000
 13474,'5 ',     1.838,     0.000,     0.000,     0.000,1.05000,  1341,     6.250,   0.00900,   0.16600,   0.00000,   0.00000,1.00000,1,    1.9,     6.000,     0.000,   7,1.0000
 13475,'6 ',     2.343,     0.000,     0.000,     0.000,1.05000,  1341,     7.650,   0.00730,   0.13500,   0.00000,   0.00000,1.00000,1,    2.4,     7.650,     0.000,   7,1.0000
 13476,'3 ',     3.645,     0.000,     0.000,     0.000,1.05000,  1341,    11.500,   0.02570,   0.73700,   0.00000,   0.00000,1.00000,1,    3.7,    11.900,     0.000,   7,1.0000
 13477,'2 ',     0.781,     0.000,     0.000,     0.000,1.05000,  1341,     2.700,   0.03020,   0.86600,   0.00000,   0.00000,1.00000,1,    0.8,     2.550,     0.000,   7,1.0000
 13479,'9 ',     1.041,     0.000,     0.000,     0.000,1.00000,     0,     3.400,   0.00730,   0.13500,   0.00000,   0.00000,1.00000,1,    1.1,     3.400,     0.000,   7,1.0000
 14073,'3 ',     1.976,    -2.400,    -2.400,    -2.400,1.04000,     0,     7.611,   0.02040,   0.33060,   0.00000,   0.00000,1.00000,1,    2.0,     6.450,     0.000,   7,1.0000
 14075,'1 ',    10.000,     0.000,     0.000,     0.000,1.00000,     0,    10.000,   0.00000,   0.15500,   0.00000,   0.00000,1.00000,0,    3.0,    10.000,     1.000,   1,1.0000
 14471,'1 ',     1.225,     0.000,     0.000,     0.000,1.04000,     0,     4.000,   0.00320,   0.12400,   0.00000,   0.00000,1.00000,1,    1.4,     4.000,     0.000,   7,1.0000
 14472,'1 ',     0.085,     0.000,     0.000,     0.000,1.00000,     0,     0.850,   0.00210,   0.08600,   0.00000,   0.00000,1.00000,1,    0.1,     0.850,     0.000,   1,1.0000
 14604,'1 ',     4.800,     0.000,     0.000,     0.000,1.05000,     0,     7.000,   0.00000,   0.15000,   0.00000,   0.10000,1.00000,0,    2.0,     4.800,     0.000,   5,1.0000
 14871,'1 ',     0.521,     0.000,     0.000,     0.000,1.05000,     0,     4.600,   0.02570,   0.73700,   0.00000,   0.00000,1.00000,1,    0.5,     1.700,     0.000,   7,1.0000
 14902,'OH',   450.000,     0.000,   279.000,  -178.000,1.07500,  3522,   540.000,   0.00000,   0.32770,   0.00000,   0.00000,1.00000,0,  279.0,   450.000,   225.000,   4,1.0000
 15171,'TW',    14.090,     0.124,    15.120,   -15.120,1.05000,  1511,    46.000,   0.00900,   0.14800,   0.00000,   0.00000,1.00000,1,   15.3,    46.000,     0.000,   7,1.0000
 15172,'DW',     3.063,    -3.290,     3.290,    -3.290,1.00000,     0,    10.000,   0.00900,   0.14800,   0.00000,   0.00000,1.00000,1,    3.1,    10.000,     0.000,   7,1.0000
 15173,'DW',     0.781,    -0.840,     0.840,    -0.840,1.00000,     0,     2.550,   0.00730,   0.13500,   0.00000,   0.00000,1.00000,1,    0.8,     2.550,     0.000,   7,1.0000
 15174,'DW',     6.126,    -6.570,     6.570,    -6.570,1.00000,     0,    20.000,   0.00900,   0.14800,   0.00000,   0.00000,1.00000,1,    6.2,    20.000,     0.000,   7,1.0000
 15571,'DW',     1.823,    -1.960,     1.960,    -1.960,1.00000,     0,     5.950,   0.00730,   0.13500,   0.00000,   0.00000,1.00000,1,    1.9,     5.950,     0.000,   7,1.0000
 15572,'DW',     5.514,    -3.430,     5.920,    -5.920,1.00000,     0,    18.750,   0.00900,   0.16600,   0.00000,   0.00000,1.00000,1,    5.6,    18.000,     0.000,   7,1.0000
 15573,'1 ',     6.126,     0.000,     0.000,     0.000,1.04000,     0,    23.000,   0.02570,   0.73700,   0.00000,   0.00000,1.00000,1,    6.2,    20.000,     0.000,   7,1.0000
 15771,'1 ',     0.606,    -0.300,    -0.300,    -0.300,1.04000,  3581,     1.980,   0.02040,   0.33060,   0.00000,   0.00000,1.00000,1,    1.5,     1.980,     0.000,   7,1.0000
 15772,'1 ',     0.919,    -1.920,    -1.920,    -1.920,1.04000,  3581,     3.000,   0.02040,   0.33060,   0.00000,   0.00000,1.00000,1,    1.5,     3.000,     0.000,   7,1.0000
 16371,'1 ',     1.041,     0.000,     0.000,     0.000,1.00000,     0,     3.400,   0.00730,   0.13500,   0.00000,   0.00000,1.00000,1,    1.1,     3.400,     0.000,   7,1.0000
 16372,'2 ',     1.041,     0.000,     0.000,     0.000,1.00000,     0,     3.400,   0.00730,   0.13500,   0.00000,   0.00000,1.00000,1,    1.1,     3.400,     0.000,   7,1.0000
 16373,'3 ',     2.083,     0.000,     0.000,     0.000,1.00000,     0,     6.800,   0.00730,   0.13500,   0.00000,   0.00000,1.00000,1,    2.1,     6.800,     0.000,   7,1.0000
 16374,'4 ',     2.343,     0.000,     0.000,     0.000,1.00000,     0,     7.650,   0.00210,   0.08600,   0.00000,   0.00000,1.00000,1,    2.4,     7.650,     0.000,   7,1.0000
 16375,'1 ',     1.213,     0.000,     0.000,     0.000,1.00000,     0,     4.250,   0.00210,   0.08600,   0.00000,   0.00000,1.00000,1,    1.3,     3.960,     0.000,   7,1.0000
 16376,'6 ',     1.516,     0.000,     0.000,     0.000,1.00000,     0,     5.100,   0.00210,   0.08600,   0.00000,   0.00000,1.00000,1,    1.5,     4.950,     0.000,   7,1.0000
 16377,'1 ',     2.757,     0.000,     0.000,     0.000,1.00000,     0,     9.200,   0.02570,   0.73700,   0.00000,   0.00000,1.00000,1,    3.0,     9.000,     0.000,   7,1.0000
 16378,'1 ',     0.490,     0.000,     0.000,     0.000,1.00000,     0,     1.700,   0.00210,   0.08600,   0.00000,   0.00000,1.00000,1,    0.5,     1.600,     0.000,   7,1.0000
 16379,'2 ',     0.089,     0.000,     0.000,     0.000,1.00000,     0,     0.323,   0.00320,   0.12400,   0.00000,   0.00000,1.00000,1,    1.3,     0.290,     0.000,   7,1.0000
 16571,'1 ',    11.578,     0.000,     0.000,     0.000,1.05000,  1651,    40.000,   0.02570,   0.73700,   0.00000,   0.00000,1.00000,1,   12.6,    37.800,     0.000,   7,1.0000
 16670,'1 ',     1.378,    -1.418,     0.000,    -3.070,1.00000,     0,     4.500,   0.03020,   0.86600,   0.00000,   0.00000,1.00000,1,    2.9,     4.500,     0.000,   7,1.0000
 16671,'1 ',     1.041,     0.000,     0.000,     0.000,1.04000,     0,     3.400,   0.00730,   0.13500,   0.00000,   0.00000,1.00000,1,    1.1,     3.400,     0.000,   7,1.0000
 16672,'2 ',     0.487,    -0.560,    -0.560,    -0.560,1.04000,     0,     1.700,   0.00730,   0.13500,   0.00000,   0.00000,1.00000,1,    0.5,     1.590,     0.000,   7,1.0000
 16674,'1 ',     5.728,     0.000,     0.000,     0.000,1.04000,     0,    18.700,   0.00730,   0.13500,   0.00000,   0.00000,1.00000,1,    5.8,    18.700,     0.000,   7,1.0000
 16675,'2 ',     2.450,    -2.650,    -2.650,    -2.650,1.04000,     0,     8.000,   0.02690,   0.76900,   0.00000,   0.00000,1.00000,1,    2.7,     8.000,     0.000,   7,1.0000
 16677,'1 ',     1.041,     0.000,     0.000,     0.000,1.00000,     0,     3.400,   0.00210,   0.08600,   0.00000,   0.00000,1.00000,1,    1.1,     3.400,     0.000,   7,1.0000
 16679,'3 ',     1.041,     0.000,     0.000,     0.000,1.00000,     0,     3.400,   0.00210,   0.08600,   0.00000,   0.00000,1.00000,1,    1.1,     3.400,     0.000,   7,1.0000
 16873,'3 ',     8.000,     7.000,     7.000,    -1.000,1.05000,  1681,    11.500,   0.00000,   0.25000,   0.00000,   0.00000,1.00000,1,    7.0,     8.000,     2.000,   3,1.0000
 17073,'3 ',    22.500,     0.565,    23.000,   -25.000,1.05000,  1701,    35.500,   0.00410,   0.18000,   0.00000,   0.00000,1.00000,1,    7.0,    22.500,     5.000,   3,1.0000
 17074,'4 ',    22.500,     0.565,    23.000,   -25.000,1.05000,  1701,    35.500,   0.00410,   0.18000,   0.00000,   0.00000,1.00000,1,    7.0,    22.500,     5.000,   3,1.0000
 17075,'7 ',     0.606,    -0.800,    -0.800,    -0.800,1.00000,     0,     1.980,   0.02040,   0.33060,   0.00000,   0.00000,1.00000,1,    0.6,     1.980,     0.000,   7,1.0000
 17077,'8 ',     0.006,     0.000,     0.000,     0.000,1.00000,     0,     1.200,   0.03020,   0.86600,   0.00000,   0.00000,1.00000,1,    0.3,     0.020,     0.000,   7,1.0000
 17671,'1 ',    10.000,     0.565,     7.000,    -3.000,1.05000,  1701,    12.500,   0.00000,   0.15000,   0.00000,   0.00000,1.00000,1,    7.0,    10.000,     3.000,   3,1.0000
 17672,'2 ',    10.000,     0.565,     7.000,    -3.000,1.05000,  1701,    12.500,   0.00000,   0.13500,   0.00000,   0.00000,1.00000,1,    7.0,    10.000,     3.000,   3,1.0000
 18271,'DW',     1.302,    -1.000,    -1.000,    -1.000,1.00000,     0,     4.250,   0.00730,   0.13500,   0.00000,   0.00000,1.00000,1,    1.2,     4.250,     0.000,   7,1.0000
 18471,'1 ',     1.528,     0.000,     0.000,     0.000,1.04000,     0,     5.200,   0.00550,   0.14300,   0.00000,   0.00000,1.00000,1,    1.5,     4.990,     0.000,   7,1.0000
 18472,'DW',     0.766,    -0.596,     0.000,    -0.820,1.00000,     0,     2.978,   0.00220,   0.41940,   0.00000,   0.00000,1.00000,1,    0.8,     2.500,     0.000,   7,1.0000
 18901,'OH',    58.000,     0.000,    30.000,   -21.320,1.07500,  1891,    68.235,   0.00000,   0.17000,   0.00000,   0.00000,1.00000,0,   30.0,    58.000,    20.000,   1,1.0000
 19081,'1 ',     0.781,     0.000,     0.000,     0.000,1.04000,     0,     2.550,   0.00730,   0.13500,   0.00000,   0.00000,1.00000,1,    0.8,     2.550,     0.000,   7,1.0000
 19082,'2 ',     0.521,     0.000,     0.000,     0.000,1.05000,     0,     1.700,   0.00730,   0.13500,   0.00000,   0.00000,1.00000,1,    0.5,     1.700,     0.000,   7,1.0000
 19083,'1 ',     1.528,     0.000,     0.000,     0.000,1.04000,     0,     6.900,   0.02570,   0.73700,   0.00000,   0.00000,1.00000,1,    1.6,     4.990,     0.000,   7,1.0000
 19084,'2 ',     1.378,    -1.500,    -1.500,    -1.500,1.04000,     0,     4.600,   0.02570,   0.73700,   0.00000,   0.00000,1.00000,1,    1.6,     4.500,     0.000,   7,1.0000
 19085,'1 ',     6.432,    -7.000,    -7.000,    -7.000,1.04000,     0,    23.824,   0.00220,   0.41940,   0.00000,   0.00000,1.00000,1,    6.6,    21.000,     0.000,   7,1.0000
 19101,'OH',    98.400,     0.000,    51.000,   -36.170,1.07500,  1911,   108.240,   0.00000,   0.14400,   0.00279,   0.11997,1.00000,0,   51.0,    98.400,    34.000,   1,1.0000
 19317,'SC',     0.000,    -6.000,     6.000,    -6.000,1.05000,  1931,     6.000,   0.00000,9999.00000,   0.00000,   0.00000,1.00000,1,    6.0,     0.000,     0.000,   1,1.0000
 19371,'1 ',     7.275,     0.000,     0.000,     0.000,1.05000,  1931,    29.780,   0.00220,   0.41940,   0.00000,   0.00000,1.00000,1,   11.0,    23.750,     0.000,   7,1.0000
 19372,'2 ',     3.385,     0.000,     0.000,     0.000,1.05000,  1931,    11.050,   0.00730,   0.13500,   0.00000,   0.00000,1.00000,1,   11.6,    11.050,     0.000,   7,1.0000
 19471,'1 ',   133.000,    71.345,    94.000,   -50.000,1.07500,  1941,   153.000,   0.00000,   0.15300,   0.00000,   0.00000,1.00000,1,   75.0,   133.500,    60.000,   4,1.0000
 19472,'5 ',    58.274,     0.000,    38.000,   -23.000,1.07500,  1941,    66.625,   0.00200,   0.14450,   0.00000,   0.00000,1.00000,0,   41.0,    58.274,    19.700,   1,1.0000
 19473,'3 ',    58.274,     0.000,    40.000,   -23.000,1.07500,  1941,    66.625,   0.00200,   0.14450,   0.00000,   0.00000,1.00000,0,   41.0,    58.274,    19.700,   1,1.0000
 19601,'2 ',     0.585,     0.000,     0.000,     0.000,1.00000,     0,     6.500,   0.00000,   0.21900,   0.00000,   0.00000,1.00000,1,  100.0,     5.850,     0.000,   2,1.0000
 19771,'1 ',    13.018,     0.000,     0.000,     0.000,1.05000,  1971,    46.875,   0.00900,   0.16600,   0.00000,   0.00000,1.00000,1,    8.5,    42.500,     0.000,   7,1.0000
 19772,'TW',     2.604,    -1.203,     2.790,    -2.790,1.05000,  1971,     8.500,   0.00730,   0.13500,   0.00000,   0.00000,1.00000,1,    2.8,     8.500,     0.000,   7,1.0000
 19773,'TW',     9.189,    -4.236,     9.860,    -9.860,1.05000,  1971,    38.714,   0.00220,   0.41940,   0.00000,   0.00000,1.00000,1,    9.9,    30.000,     0.000,   7,1.0000
 19971,'1 ',     6.126,    -6.700,     6.700,    -6.700,1.05000,  1991,    20.700,   0.02570,   0.73700,   0.00000,   0.00000,1.00000,1,    6.7,    20.000,     0.000,   7,1.0000
 19972,'2 ',     0.705,     0.000,     0.000,     0.000,1.05000,  1991,     2.300,   0.02570,   0.73700,   0.00000,   0.00000,1.00000,1,    0.7,     2.300,     0.000,   7,1.0000
 19973,'3 ',     0.705,     0.000,     0.000,     0.000,1.05000,  1991,     2.300,   0.02570,   0.73700,   0.00000,   0.00000,1.00000,1,    1.1,     2.300,     0.000,   7,1.0000
 19974,'4 ',     4.932,    -4.000,     4.000,    -4.000,1.05000,  1991,    16.100,   0.02570,   0.73700,   0.00000,   0.00000,1.00000,1,    4.0,    16.100,     0.000,   7,1.0000
 20101,'OH',    35.000,     0.000,    21.000,   -14.000,1.07500,  2011,    41.200,   0.00000,   0.18000,   0.00000,   0.00000,1.00000,0,   21.0,    35.000,   -38.000,   1,1.0000
 21071,'2 ',     0.153,     0.000,     0.000,     0.000,1.05000,     0,     0.850,   0.00730,   0.13500,   0.00000,   0.00000,1.00000,1,    0.2,     0.500,     0.000,   7,1.0000
 21371,'TW',     8.730,    -5.111,     9.500,    -9.500,1.05000,  2131,    31.730,   0.00920,   0.16210,   0.00000,   0.00000,1.00000,1,    9.5,    28.500,     0.000,   7,1.0000
 21372,'2 ',     5.360,    -3.121,     5.800,    -5.800,1.05000,  2131,    23.380,   0.00920,   0.16210,   0.00000,   0.00000,1.00000,1,    5.8,    17.500,     0.000,   7,1.0000
 21871,'1 ',     0.521,     0.000,     0.000,     0.000,1.01000,     0,     1.700,   0.00730,   0.13500,   0.00000,   0.00000,1.00000,1,    0.5,     1.700,     0.000,   7,1.0000
 21872,'2 ',     0.766,    -0.990,    -0.990,    -1.280,1.01000,     0,     2.700,   0.03020,   0.86600,   0.00000,   0.00000,1.00000,1,    0.9,     2.500,     0.000,   7,1.0000
 21873,'1 ',     1.274,     0.000,     0.000,     0.000,1.00000,     0,     1.600,   0.02040,   0.33060,   0.00000,   0.00000,1.00000,0,  100.0,     1.274,     0.000,   1,1.0000
 21875,'1 ',     3.000,     0.000,     0.000,     0.000,1.00000,     0,     3.780,   0.00000,   0.15000,   0.00000,   0.00000,1.00000,1,  100.0,     3.000,     0.000,   1,1.0000
 22272,'DW',     5.207,    -4.249,     0.000,    -5.590,1.00000,     0,    16.000,   0.00900,   0.14800,   0.00000,   0.00000,1.00000,1,    5.3,    17.000,     0.000,   7,1.0000
 22273,'DW',     1.378,    -1.103,     0.000,    -1.480,1.00000,     0,     4.000,   0.02690,   0.76900,   0.00000,   0.00000,1.00000,1,    1.4,     4.500,     0.000,   7,1.0000
 22274,'2 ',     1.819,    -2.400,    -2.400,    -2.400,1.00000,     0,     5.940,   0.02040,   0.33060,   0.00000,   0.00000,1.00000,1,    1.9,     5.940,     0.000,   7,1.0000
 22275,'4 ',     1.302,     0.000,     0.000,     0.000,1.00000,     0,     4.250,   0.00730,   0.13500,   0.00000,   0.00000,1.00000,1,    1.3,     4.250,     0.000,   7,1.0000
 22276,'3 ',     1.823,     0.000,     0.000,     0.000,1.00000,     0,     6.680,   0.00920,   0.16210,   0.00000,   0.00000,1.00000,1,    1.9,     5.950,     0.000,   7,1.0000
 22277,'DW',     0.934,    -0.990,     0.000,    -0.990,1.00000,     0,     3.340,   0.00920,   0.16210,   0.00000,   0.00000,1.00000,1,    0.9,     3.050,     0.000,   7,1.0000
 22278,'1 ',     1.415,    -1.000,    -1.000,    -1.000,1.00000,     0,     4.620,   0.02040,   0.33060,   0.00000,   0.00000,1.00000,1,    1.4,     4.620,     0.000,   7,1.0000
 22292,'5 ',     6.000,     0.000,     0.000,     0.000,1.00000,     0,     6.000,   0.00000,   0.20000,   0.00000,   0.10000,1.00000,0,    2.0,     6.000,     0.000,   1,1.0000
 22371,'1 ',    18.225,     0.000,     0.000,     0.000,1.05000,  2231,    59.500,   0.00730,   0.13500,   0.00000,   0.00000,1.00000,1,   12.0,    59.500,     0.000,   7,1.0000
 22471,'1 ',     0.781,     0.000,     0.000,     0.000,1.04000,     0,     2.550,   0.00730,   0.13500,   0.00000,   0.00000,1.00000,1,    0.8,     2.550,     0.000,   7,1.0000
 22472,'2 ',     1.302,     0.000,     0.000,     0.000,1.04000,     0,     4.250,   0.00730,   0.13500,   0.00000,   0.00000,1.00000,1,    1.3,     4.250,     0.000,   7,1.0000
 22473,'1 ',     1.302,    -1.500,    -1.500,    -1.500,1.01000,     0,     4.250,   0.00730,   0.13500,   0.00000,   0.00000,1.00000,1,    1.3,     4.250,     0.000,   7,1.0000
...